499
55.0000000 55.0000000 55.0000000
C 18.3789978 14.6250000 21.3680115
C 17.0130997 15.2149963 21.7160034
C 19.1749878 16.9658966 21.6300049
C 17.9590149 17.5524979 21.7099915
C 16.8500061 16.5128021 21.9071007
C 19.5339966 15.5970001 21.5269775
C 21.0586014 15.7030029 21.8290100
C 21.4825974 17.1009979 21.3209839
C 20.3695984 17.7899933 21.4839935
C 22.9210205 17.2881012 21.3130035
C 23.8534012 16.4479980 21.8769989
C 16.0329895 8.07998657 24.2460022
C 14.8070068 8.68200684 24.2239990
C 19.2120056 7.42999268 24.2880020
C 18.7249985 8.70143032 23.9029999
C 17.1457005 8.90627003 23.7813034
C 20.9639893 8.97299194 23.7900085
C 20.7089844 7.84698486 24.4340210
C 23.8599854 8.30000305 24.6279907
C 13.0749969 10.4319992 23.9468994
C 12.6968994 11.6868973 23.5559998
C 15.5050049 10.5910034 23.2019958
C 14.4709930 10.0410004 23.9492035
C 15.1929932 11.9199829 22.6239929
C 16.8957996 10.2600098 22.9676018
C 18.0339966 11.1650085 22.8930054
C 19.2812004 10.8396988 23.0030060
C 21.9014969 11.1553001 22.9799957
C 20.3580017 11.5841999 22.7340088
C 19.6070004 9.66499329 23.5590057
C 22.3320007 9.81799316 23.5090027
C 23.7709961 9.76599121 24.0855007
C 24.7189941 11.9730072 23.8290100
C 24.8159943 10.6340027 23.9580078
C 25.9420166 10.2789917 24.6670074
C 26.9569702 11.4860229 24.5379944
C 13.6412964 13.8829956 22.6664963
C 12.4167995 14.3820038 23.1440125
C 11.5869980 13.6040039 24.1920166
C 11.4669952 12.2640076 24.2760010
C 16.0509949 14.3670044 22.3484993
C 13.9400024 12.5249939 23.0468998
C 16.3288994 12.8619995 22.4680023
C 14.7170105 14.9520035 22.5169983
C 18.7019958 13.4580078 22.1979980
C 17.7610016 12.4519958 22.2229004
C 21.5310059 13.3950043 22.3930054
C 20.0529022 12.9370117 22.0989990
C 22.0279007 14.7231979 22.1999969
C 23.4071007 14.9717026 22.2180023
C 24.3049927 14.0440063 22.5420074
C 23.7920074 12.9379883 23.3460007
C 22.4113007 12.5130005 23.1450043
C 25.3760071 14.6239929 23.2354965
C 26.1010132 12.4709930 23.8529968
C 26.3650055 13.8909912 23.8720093
C 12.3552999 15.8389969 23.3150024
C 13.2879944 17.0254974 22.9107971
C 12.5420074 18.2900085 23.4019928
C 11.4819946 17.7420044 24.1706009
C 11.1759949 16.4469910 23.9076004
C 14.5199890 16.4419861 22.3080139
C 15.5989990 17.2789993 22.2709961
C 25.0709839 16.9719849 22.4802017
C 25.9149780 16.0079956 22.9535980
C 27.2169800 16.3880997 23.5400085
C 18.0409851 2.66799927 27.1308002
C 15.8119965 4.91299438 26.5529938
C 15.0049973 4.20901489 27.4790039
C 15.2769775 5.89700317 25.6529007
C 17.5760040 6.09100342 25.6739960
C 17.1875000 4.72100830 26.2489014
C 18.1619873 3.90200830 26.5216980
C 21.2929993 5.78079987 25.6530151
C 19.9719849 5.36731005 25.6090088
C 21.8082962 3.71900177 26.7730103
C 20.3940125 3.32949829 26.9130249
C 19.5249939 4.27583981 26.3670044
C 22.1880035 4.76800537 25.8890076
C 23.7787018 4.80297852 25.8619995
C 24.1829987 6.03100586 25.4620056
C 10.7779999 8.01901245 26.9649963
C 12.5879974 6.53500366 26.5980072
C 12.6954002 8.39498901 25.3509979
C 11.9420013 7.60501099 26.3359985
C 16.3150024 6.84899902 25.0401001
C 13.9270020 7.79400635 24.9378967
C 13.8460083 6.31999969 25.7129974
C 18.9680023 6.39599609 25.3470001
C 21.7290039 6.88200378 24.8590088
C 23.2479858 6.99699402 24.9370117
C 25.1470032 7.93830109 25.1589966
C 26.2109985 8.91700745 24.8819885
C 26.6229858 6.29998779 25.9020081
C 25.4120026 6.58599854 25.5610046
C 8.90100098 11.2799988 26.9280090
C 9.26119995 9.86499023 26.9750061
C 10.6700134 11.4270020 25.1709900
C 10.4869995 9.26800537 26.4080048
C 9.66101074 12.0769958 26.0000000
C 11.0185013 9.93399048 25.2140045
C 12.2909851 9.63900757 24.7801971
C 9.16900635 14.3829956 27.2803993
C 9.83801270 13.6889954 26.1174011
C 10.6989746 14.2590027 25.1193008
C 10.0960007 16.4831009 26.2113991
C 10.6719971 15.7429962 25.0387993
C 10.4471998 17.8922997 26.4279938
C 9.70320129 15.7429962 27.4552994
C 14.8430023 2.90002441 29.3200073
C 17.0333004 1.38500214 29.1950073
C 18.2902985 1.07099915 29.1679993
C 16.7809982 2.41601562 28.0980072
C 19.3670044 1.33801270 28.4879761
C 19.4909973 2.39210129 27.5410004
C 9.81597900 5.88897705 29.9970093
C 12.5089722 3.28399658 30.2079926
C 13.5731964 3.60400391 29.1830139
C 11.8499756 5.41400146 28.9499512
C 11.5799561 4.43499756 29.8909912
C 12.7099915 5.56994629 27.8529968
C 13.6129761 4.45501709 28.0000000
C 15.5599976 3.16497803 28.2599945
C 7.64300537 8.95999908 30.1099854
C 10.6500244 6.19000244 28.7700195
C 10.1136999 7.21899414 28.0169983
C 8.98999023 8.05297852 28.5079956
C 8.42199707 7.71099854 29.7819824
C 8.03002930 9.95001221 29.0429993
C 8.00939941 11.2981033 29.0998993
C 8.59997559 9.17700195 27.9340057
C 8.44799805 12.0816002 28.0904007
C 8.61999512 14.1975002 29.6240005
C 8.79998779 13.5010071 28.3284988
C 10.1790009 17.6139984 29.0000000
C 9.53900146 16.2680054 28.6933975
C 9.25247002 15.4621964 29.8420105
C 12.7789917 2.28002930 31.1889954
C 15.1059875 1.98699963 30.4369965
C 16.3947983 1.43299866 30.3689880
C 15.6999512 0.599975586 32.5100098
C 14.0720062 1.64300537 31.5200195
C 14.3500977 0.829956114 32.5520020
C 16.5900879 0.800048888 31.5479736
C 10.5380249 4.80102539 30.6546021
C 8.60302734 6.37500000 30.4500122
C 7.30700684 9.72899628 31.1870117
C 7.21502686 11.0700073 31.6130066
C 7.86640167 11.9030151 30.5899963
C 7.51800537 11.4340057 32.9559937
C 8.23556042 13.3280029 30.7539978
C 8.36099243 13.7369995 32.1109009
C 9.09698486 15.0700073 32.2230072
C 10.1625977 18.0970001 30.3489990
C 9.32299805 16.0110016 31.1459961
C 10.0096970 17.1159973 31.4250031
C 10.1470032 17.7339935 32.7094002
C 7.19299316 10.7169952 34.1419983
C 7.33299255 11.4800110 35.2470093
C 8.15698242 12.7416000 33.1336975
C 7.85400391 12.8889771 35.4739990
C 8.44097900 13.3870010 34.3161011
C 9.17001343 14.7059021 34.5101013
C 9.00100708 15.7720032 33.5899963
C 9.86476994 16.7959900 33.9290009
C 10.4165001 17.2190018 35.1349945
C 10.0479002 14.5046997 38.2730103
C 8.42199707 13.2579956 36.7619934
C 9.39498901 14.1979980 37.1480103
C 9.75407028 15.0774994 35.8800049
C 11.1551018 15.2210083 38.2609863
C 10.4620056 16.2849998 36.1409912
C 10.9729919 16.3910065 37.4349976
C 11.6478996 17.6269989 37.8860016
C 12.0520020 18.1110229 39.2032013
C 20.1790161 19.2640076 21.6448002
C 21.1690063 20.3590088 21.4883003
C 22.5480995 19.9109955 21.0624008
C 23.3134003 18.6750031 21.3104992
C 24.7009888 19.2959900 21.4219971
C 23.4242001 21.0720062 21.2077026
C 24.7489929 20.6779938 21.8379974
C 19.4620056 22.1362000 21.8209991
C 20.7810059 21.6549988 21.4122009
C 21.5850067 22.7279968 21.0839005
C 21.4880066 23.9649963 21.7670288
C 23.0870056 22.3760071 21.3719025
C 23.8213997 23.7799988 21.3961029
C 22.7621002 24.5480042 21.7190018
C 13.1260071 19.5190125 23.6541004
C 14.3869934 19.6380005 22.9689941
C 15.3999939 18.6914997 22.5167007
C 16.2609024 20.8890076 22.9320984
C 14.9449997 20.9220009 23.1019897
C 19.0050049 19.9239006 22.2149963
C 17.9570999 18.8640137 22.1440125
C 18.6179008 21.2469025 22.6035995
C 16.7300110 19.5249939 22.4609985
C 26.0570068 21.3549957 22.2779999
C 26.8739929 18.8519897 22.4447021
C 27.0299988 20.3120117 22.4524002
C 25.4769897 18.4120026 22.1580048
C 16.0870056 23.6840057 24.0019989
C 14.3570004 21.8639984 23.9850006
C 14.7070007 23.1929932 24.2515030
C 19.1893005 23.6150055 22.2145004
C 17.3040009 21.7499008 22.9475994
C 16.9760132 23.1589966 23.1229858
C 18.2141991 23.9450073 23.2200012
C 20.2729950 24.4060059 22.3470001
C 25.1730042 23.7490997 22.0520020
C 26.3119965 22.7059937 22.0509949
C 16.0676994 24.9895020 24.5659943
C 18.1189995 25.4074020 23.5599976
C 17.0756989 26.0031967 24.3309937
C 19.2484016 26.2640076 23.5260010
C 20.3236008 25.5426025 23.1116028
C 21.5944977 26.3730011 22.6310120
C 22.9800110 25.8460083 22.2200012
C 24.4129944 26.2209930 22.2930298
C 25.3859863 25.2380066 22.2120056
C 26.7449951 25.4570007 22.5769958
C 26.8480072 26.8049927 23.0409851
C 19.6490021 27.5643005 24.2052002
C 20.9125996 28.2315979 24.0835037
C 21.8945999 27.7449951 23.1530151
C 24.6054993 27.5809937 22.8529968
C 23.2335968 28.2819977 23.2482986
C 23.5648003 29.2420044 24.4244003
C 25.9450073 27.8419952 23.1609955
C 26.1119995 28.8419952 24.2270050
C 24.8610229 29.6900024 24.4709930
C 10.9709930 18.5829926 25.3097000
C 12.5580139 20.4830017 24.7619934
C 11.4839935 19.8399963 25.5571976
C 11.7099991 20.5279999 27.1069946
C 12.1340027 21.8540039 27.2480011
C 13.2741013 23.8760071 26.4279938
C 13.2300110 21.6820068 25.1230011
C 12.9376984 22.5397034 26.2462006
C 14.0269012 24.2014999 25.3229980
C 12.6950073 24.6699982 27.4790039
C 15.0232010 25.2454987 25.4664001
C 15.0768013 26.6938019 26.1096992
C 16.3000031 27.4592972 26.0899963
C 13.8020020 26.8831024 27.0230103
C 17.3520050 27.1479950 25.0679932
C 16.3999939 28.7949009 26.9819946
C 17.7969971 29.1558990 27.0029907
C 18.6159973 27.9580994 25.0220032
C 18.7360001 29.0144997 26.0196991
C 20.0979919 29.6293030 25.9750061
C 21.1649933 29.4639893 25.0599976
C 22.5140076 29.8030090 25.3638000
C 20.4060059 30.5713005 27.0440063
C 21.8240051 30.8750000 27.2551003
C 24.2100067 31.2189941 26.4762001
C 22.7760010 30.7319946 26.2851028
C 26.3790283 31.1990051 25.8218002
C 25.1430054 30.6289978 25.5641022
C 27.4219971 30.7699890 26.6322994
C 10.5370026 18.3789978 27.8450012
C 10.8390045 19.7429962 28.0850067
C 10.8695984 20.2230072 29.4091034
C 11.8263998 22.4129944 28.4962006
C 12.1995001 23.7679996 28.8359985
C 11.5158997 21.5200043 29.6392994
C 12.3930054 24.0333023 30.2063999
C 13.0589981 26.4460144 29.1574020
C 13.2300110 26.0189972 27.8934002
C 13.9080048 27.7369995 29.2859955
C 14.4209976 27.8800049 27.9700012
C 15.6430054 28.5365009 28.0995007
C 16.2140045 29.0604019 29.3380127
C 17.5319977 29.6702995 29.5120239
C 18.3469849 29.8370056 28.2145996
C 19.5109863 30.6669922 28.1900024
C 20.2460022 31.0049973 29.4160004
C 21.6336002 31.6327991 29.5480042
C 22.3320007 31.7922993 28.3712006
C 23.7340088 31.8639984 28.7040100
C 24.2949982 32.3030090 29.9110107
C 27.3969727 31.5289917 27.8710022
C 24.7780151 31.8719940 27.7180023
C 26.0969849 32.0579987 28.4524994
C 25.6860046 32.0829926 29.7979736
C 10.6578979 19.3690033 30.6739960
C 11.1070995 19.8869934 31.9759979
C 11.5333023 21.1990051 32.2535019
C 11.6408005 21.9770050 31.0811005
C 12.1080999 23.2441006 31.5960083
C 12.6620026 23.7560120 32.7570038
C 12.8900146 25.3733997 30.3185005
C 13.5387001 25.7810059 31.6773987
C 13.5124016 24.9320068 32.7846985
C 14.4572983 26.8630066 31.6770020
C 14.9904022 27.2149963 32.9848022
C 14.6860046 27.5541000 30.5515003
C 15.8710022 28.3940125 30.4720993
C 16.2635002 28.6770020 31.8344002
C 17.5469971 29.5109863 31.8407993
C 18.1499939 30.0899963 30.7019958
C 19.2434998 30.5360107 32.9939880
C 19.4149933 30.6359863 30.5333023
C 19.8883972 31.0109863 31.7699890
C 21.3420105 31.5489960 32.0590057
C 22.1733017 32.0030060 30.8540039
C 23.6149902 31.9360046 31.1979980
C 24.3499756 32.0200043 32.4710083
C 25.8520050 32.1760025 32.3590088
C 26.5630035 32.0850067 30.9730225
C 10.9846001 18.9340057 33.0469971
C 11.1867981 19.4685974 34.3959961
C 12.0669861 20.5858002 34.7859955
C 11.1176996 18.4098015 35.4540100
C 11.8964005 21.6149979 33.5260010
C 12.5540009 22.8459930 33.7630005
C 13.2690125 23.0520020 34.9739990
C 14.0910034 24.2720032 35.0476990
C 14.0710001 25.2441998 34.1000061
C 14.9181004 26.2665997 34.0520020
C 15.8099976 26.3209991 35.4010010
C 16.6041031 27.3900146 35.2989960
C 16.1130066 28.0959930 33.0150146
C 16.7248001 28.1719971 34.2520142
C 17.9780273 29.0570068 34.3362999
C 18.1939697 29.6170044 33.0959930
C 18.6530151 29.3839722 35.4978981
C 19.8520050 30.0609741 35.2007980
C 27.2170105 30.2550049 35.1840057
C 20.2070999 30.9050293 34.0140076
C 21.3419952 31.6571007 33.4979858
C 22.6109924 31.4250031 34.2489929
C 24.0709991 31.8110046 33.8429871
C 22.8040009 31.1724014 35.6300049
C 26.4060059 31.2810059 34.7189941
C 25.0140076 31.2099609 34.7980042
C 26.6839905 31.5310059 33.3609924
C 11.5150146 18.6780090 36.8719940
C 12.4054031 19.6969986 36.9739990
C 12.4620056 20.8769989 36.1210022
C 13.1540070 20.0239868 38.2085991
C 13.9281998 21.2139893 38.3795013
C 13.2789917 22.1399994 36.1250000
C 14.0310059 22.1569977 37.3659973
C 14.8070068 23.3449020 37.3689880
C 14.8106003 24.3216000 36.3009949
C 15.8310013 25.5150146 36.4739990
C 16.4539948 25.7500000 37.7169952
C 17.6130066 26.4774017 37.5435028
C 17.4359970 27.4700012 36.4799957
C 18.5390015 28.3262024 36.3866005
C 19.5290070 28.1239929 37.4984970
C 20.2890015 29.2979965 37.5299988
C 21.5238991 29.2799988 38.3320007
C 20.5930023 30.2559814 36.4135971
C 23.7717991 30.0280151 38.2660065
C 22.3989868 30.5310059 37.9409943
C 24.6430054 30.2910156 37.0700073
C 26.3330078 28.8720093 38.4079895
C 26.0090027 29.7890015 37.2579956
C 27.1490021 29.5789795 36.4500122
C 21.9459991 30.6790009 36.5562973
C 24.3267994 31.0139771 36.0119019
C 12.9920044 19.2860107 39.3419800
C 14.0679932 19.2090149 40.3499756
C 14.6549988 20.5459900 40.7490234
C 14.7760010 21.3399963 39.5600586
C 15.6229858 23.5869999 38.6490021
C 15.4800110 22.6910095 39.7600098
C 17.7239990 24.3519897 39.6559982
C 16.6690063 24.6310120 38.6665001
C 18.7999878 25.2449951 39.6177979
C 18.4920044 26.4770050 38.8883972
C 19.9118996 25.4290161 40.5549927
C 20.9594994 26.4459839 40.7569885
C 19.5299988 27.4420013 38.8266983
C 20.6280060 27.4409790 39.8391037
C 23.2869873 27.4699707 40.8199463
C 24.6539917 27.0200195 40.9399414
C 22.2080078 26.5600586 41.2399902
C 25.6679993 27.3250122 40.0390015
C 27.2109985 27.1069946 39.7330017
C 21.5279999 28.5226974 39.6349030
C 22.9549866 28.5016003 39.9479980
C 24.0390015 29.2850037 39.4370117
C 25.2550049 28.5410156 39.2630005
C 27.4778996 28.1459961 38.7340088
C 27.7780151 14.2806015 24.3120117
C 27.9715996 15.6679993 24.3649902
C 27.6580048 17.8900146 23.0760040
C 27.5650024 7.22952986 25.9329834
C 27.5050049 8.62999725 25.4689941
C 27.8920288 12.0200195 25.5429993
C 28.6099854 11.1079712 26.3999939
C 28.3420105 9.69500732 25.9590149
C 29.5610046 11.6960144 27.3289795
C 28.3900146 13.4698000 25.3600006
C 29.3809814 14.0853004 26.1029968
C 29.8380127 13.0609741 27.0539856
C 29.5570068 17.5729980 24.8748016
C 29.4299927 16.1510010 24.8391037
C 29.9080200 15.5784988 26.1273994
C 30.9810181 15.9270020 27.0659790
C 30.6060181 18.1519928 25.6307983
C 31.1199951 17.3219910 27.0330200
C 32.4260254 17.9500122 27.4429932
C 30.7839966 13.9100342 27.8699951
C 31.4349976 15.1300049 28.0400391
C 28.1770020 20.7869873 23.2360001
C 29.2109985 19.9730225 23.8444996
C 28.7030029 18.4280090 23.9345016
C 30.4080048 20.3243027 24.5250244
C 28.5950012 22.1329956 23.3927994
C 29.9429932 22.7070007 23.5609741
C 30.0679932 24.0599976 23.9100037
C 27.6439972 23.0889893 22.7109985
C 30.6649933 21.7351990 24.3809814
C 27.8800049 24.4839935 22.8240051
C 29.0280151 25.0249939 23.5379944
C 28.9050999 26.2869873 24.1270142
C 28.0240993 27.2890015 23.6620026
C 27.6310005 28.4680023 24.4140015
C 32.8750000 19.2458000 27.4019928
C 31.0360107 19.5440063 25.5410004
C 32.0989990 20.2539978 26.3790283
C 32.2868996 21.7399902 26.3421001
C 31.6759949 22.4170074 25.2573013
C 31.7290001 23.7330017 25.6257992
C 32.5690002 23.8909912 26.9559937
C 32.9500122 22.6649780 27.2550049
C 29.7769928 26.6400146 25.2090149
C 30.7879944 24.5209961 25.1219940
C 31.5509949 26.3419800 26.8489990
C 30.7850037 25.7399902 25.6730042
C 28.5430298 28.6600342 25.4178009
C 28.7070007 29.9633999 26.0369873
C 29.7539978 29.6124001 26.9939880
C 29.6410065 27.8499756 25.6743011
C 30.2940063 28.3100586 26.9104996
C 33.5290070 20.8731995 29.2039948
C 33.4809875 19.6918983 28.4980011
C 33.3660278 22.3390045 28.5180054
C 33.5269775 23.0986996 29.6119995
C 32.9109955 25.5740051 28.9240112
C 32.5359955 26.6770020 29.6170044
C 32.4600067 25.3720093 27.5389023
C 33.3040161 24.4909973 29.9190063
C 29.6880035 30.1664009 28.2399902
C 31.9358997 27.7529907 28.9280014
C 31.5219727 29.0209961 29.7460022
C 30.4499969 29.8420105 29.4959030
C 31.3519897 27.6040039 27.5690002
C 28.6749878 31.1149902 28.7000122
C 28.7910156 31.2130127 30.2069702
C 34.0500488 20.9499512 30.3599854
C 34.1899414 22.3900146 30.7299805
C 33.8900146 24.2099609 32.4300537
C 34.1159973 22.9058990 31.9769897
C 32.8280029 26.5580006 31.1300049
C 33.2800293 25.0851994 31.1600342
C 29.9960022 30.4190063 30.7230072
C 32.5679932 27.8530273 31.8090057
C 31.7130127 28.8820190 31.1990051
C 30.8690033 29.9229736 31.7740021
C 27.9869995 31.4399414 32.8200073
C 27.9679871 31.6760254 31.2559967
C 33.9149933 23.8026009 35.1950073
C 32.9750061 26.2160034 35.4149780
C 32.2479858 27.4479980 35.3930054
C 33.9754028 24.5229950 33.9440002
C 33.9399414 25.9849854 34.2510986
C 34.2869873 26.9817009 33.3199463
C 28.5209961 29.9400024 34.5489960
C 29.0009766 30.5100098 33.2940063
C 29.2310028 29.1110229 35.4770050
C 30.4309998 30.1519775 33.2140045
C 32.4100342 28.3000488 34.2049866
C 31.2219849 29.3920288 34.1588974
C 30.6979980 29.0020142 35.4629974
C 33.3100586 28.0500488 33.0929871
C 32.6580048 23.0379944 37.3059998
C 31.7980042 23.6243992 38.3309937
C 33.0602989 24.0289917 36.3519897
C 29.5339966 27.0419922 37.8640137
C 31.0203991 24.7789917 38.1939697
C 32.4559937 25.3289795 36.3590088
C 31.5239868 25.6550293 37.3080139
C 30.7129974 26.8070068 37.2149963
C 28.6480103 28.1350098 37.7600098
C 28.5092010 29.0130005 36.6439819
C 31.1910095 27.9359741 36.3080139
C 30.0699463 24.0820007 40.0609741
C 29.4100342 24.3789978 41.1209717
C 31.1619873 23.2520008 39.7290039
C 28.5400391 25.4190063 40.9229736
C 28.2677994 26.2849731 39.9679871
C 29.2308998 26.2290039 38.9798965
C 30.1581993 25.1190186 39.1459961
