810
55.0000000 55.0000000 55.0000000
C 7.68599701 1.17898560 2.51189995
C 8.03900146 2.60400391 1.92616999
C 7.80499268 0.147003204 1.73000336
C 8.39001465 0.244995102 0.492004395
C 9.02999878 2.60222006 0.902999997
C 9.31424046 1.49600220 0.195999205
C 9.61160278 3.69200134 0.463012695
C 9.44900513 5.01699829 1.25500107
C 10.4920044 6.08700562 1.17700195
C 8.82770157 5.12600708 2.52600098
C 10.2224998 7.29209900 2.03100586
C 11.0950012 8.45500183 1.92800140
C 11.6320038 8.53544998 0.585006714
C 12.0669861 10.6362000 1.16930008
C 12.4159851 12.0648003 0.842010617
C 11.3560028 10.6130066 2.36800003
C 12.1459961 9.80220032 0.190002397
C 13.2584991 14.8029938 9.70000997E-02
C 13.0729980 14.5639954 1.57799911
C 12.5418015 13.2649994 1.77900696
C 13.2419968 17.1799011 1.77740097
C 13.2605019 17.3344002 0.453700989
C 13.0500031 18.1439972 2.73288989
C 12.6699982 15.8972015 2.15054011
C 4.95800781 0.335998505 4.94299316
C 5.52600098 2.83999634 5.34899902
C 6.07199097 0.115997300 4.09201050
C 6.73999023 1.32299805 3.46499634
C 6.42029953 2.60530090 4.23419952
C 7.17498779 3.76699829 3.97198510
C 7.98899841 4.00601196 2.85501099
C 6.93641996 4.89300537 4.56370163
C 7.84201050 6.04901123 4.33300781
C 7.83100128 7.35729980 5.26738024
C 8.70599365 6.15100098 3.36799622
C 9.66900635 8.39400101 4.20999908
C 9.67900085 7.12300110 3.31438994
C 8.61100006 8.42390060 5.37899780
C 10.5030060 9.45600128 4.12100220
C 10.6919003 11.8210144 4.74400330
C 10.0254002 10.5980988 5.18009949
C 11.0530014 9.44999695 2.78939819
C 11.3379974 11.7924995 3.27550125
C 10.5569992 14.2960052 4.95729828
C 12.0391998 13.1629944 3.29299927
C 11.3910065 14.3370018 4.01399994
C 10.9799995 16.8340149 5.39700317
C 12.1760025 15.6225014 3.68199921
C 11.8329926 16.8052006 4.29734993
C 12.6660004 18.1753998 4.21506977
C 4.91529846 1.46899414 5.75900269
C 3.07310104 0.397003204 7.32899475
C 4.02301025 1.51000977 7.08900452
C 3.69599915 2.53700256 8.09162045
C 5.23699951 3.90060043 6.24945021
C 4.21800232 3.66820145 7.39299774
C 4.27899170 5.00500488 8.10699463
C 6.04200745 6.05999756 6.70599365
C 6.12800598 4.86999512 5.74110031
C 5.31600189 6.20700073 7.89199829
C 4.98149872 7.49879837 8.09799957
C 6.93200684 7.36339951 6.30799866
C 7.00645018 8.42300415 7.19039917
C 5.91200256 8.63200378 7.78447008
C 7.26999664 11.7749939 7.37500000
C 6.86869812 10.6903000 7.92199707
C 5.74840164 9.95310211 8.14999390
C 8.43270016 9.22200012 6.47439957
C 8.77059937 11.7130127 6.98493004
C 9.07598877 10.6389008 6.27699280
C 6.60699463 12.8569946 8.09280014
C 7.50500488 13.9197006 8.20899963
C 10.1270142 12.9728003 5.54399872
C 9.41104031 12.9179993 6.90760040
C 9.21500015 15.1369934 6.66529846
C 8.71299744 13.9690018 7.47900391
C 10.2318993 15.4989929 5.56340027
C 9.61999512 17.9510040 7.02199936
C 9.05352020 16.4972992 7.31424999
C 10.7799988 17.9088001 6.28860092
C 2.27499390 0.268997192 8.62730026
C 1.60699475 1.56201172 8.95098877
C 0.518005371 1.56600952 9.85900879
C 2.44334006 3.02600098 8.68021011
C 2.23699951 4.26199341 9.29100037
C 0.968994200 4.89900208 9.96499634
C 3.30700684 5.05100250 9.19329834
C 0.969970822 6.32101440 10.2099609
C 2.17199707 7.04059982 10.2009888
C 1.97000122 8.55059814 10.4982986
C 3.27499390 6.51400757 9.38200378
C 4.01200104 7.83499908 9.03433990
C 2.62300110 9.66999817 10.0653000
C 2.52799988 11.1170044 10.5088005
C 3.81620026 9.33010101 9.41999817
C 4.70599365 10.4450073 8.87257957
C 4.45899963 11.8410034 9.24950027
C 3.49099731 12.0799561 10.1339722
C 4.98098755 13.7791977 9.90299988
C 5.43690109 13.2061005 8.73400116
C 3.75000000 13.3397999 10.5950012
C 5.30239868 15.1589003 10.1329956
C 7.21200562 15.1649933 8.59560013
C 6.47500610 15.8309937 9.58980179
C 6.78199768 17.2627029 9.82299805
C 7.95099640 17.6040039 8.97880173
C 6.03700256 18.2790070 10.6340027
C 8.30599976 16.3093033 8.47370148
C 0.750000000 8.81005859 11.2349854
C 0.699951172 10.1700439 11.7299805
C 1.44700634 11.3740005 11.5780029
C 0.456001312 12.5220032 11.8550110
C 1.82899475 14.6281967 11.5890045
C 0.815002501 13.8219910 12.2059937
C 2.01419997E-03 14.6029968 13.0070190
C 3.47220993 14.6512003 11.2400055
C 0.764007628 15.9019928 13.4230042
C 2.59500122 17.2169952 12.1079712
C 1.91698003 16.0399933 12.2262001
C 3.88500977 17.0639954 11.2223969
C 4.90706015 18.2171021 11.6560001
C 4.31900024 15.7673988 11.1393967
C 2.83860016 18.2339935 13.3265991
C 0.339996397 17.0866013 14.3359985
C 19.3800049 14.7299805 29.7619934
C 18.4749756 17.9909973 30.1180115
C 19.3419952 15.8900146 29.0040283
C 19.2680054 17.3295975 29.3509979
C 18.4149933 14.1549988 31.7299805
C 18.2540283 14.6920013 30.4320068
C 18.0079956 16.5409851 32.1370239
C 17.7709961 17.8000031 31.5679016
C 18.4799805 6.02398682 34.9390259
C 19.5549927 6.59002686 34.2120056
C 18.3159027 12.5987015 35.1019897
C 18.5480042 14.1390076 33.0709991
C 18.7859955 12.8980026 33.8022003
C 17.6021996 15.1289978 35.4389954
C 18.0150146 15.2550049 33.9600220
C 16.8847008 17.5450134 35.5790024
C 17.5300293 16.4849854 33.3989868
C 17.0895004 17.7581997 34.1140137
C 15.5849915 1.07800293 37.8090210
C 16.3280029 2.22998047 37.5300293
C 15.1450195 0.490997314 36.7528000
C 16.5899963 2.80999756 36.3150024
C 16.5699463 4.14801025 35.9000244
C 17.6839905 4.83099365 36.5090027
C 17.5380249 4.45500183 37.9670029
C 17.8854008 6.32299805 36.1940002
C 18.2709961 7.33996582 37.1310120
C 18.1510010 8.80200195 36.9356003
C 17.4569702 7.03298950 38.2830048
C 18.7090149 11.3199463 35.8909912
C 17.7669983 9.82670021 37.6740036
C 18.3469849 11.1692963 37.2019958
C 18.0119934 13.7509995 36.0369873
C 17.9140015 12.4089966 37.9209900
C 18.2558975 13.7783966 37.3856964
C 17.6999969 14.7309875 38.1790009
C 16.7528000 17.0246010 38.3445969
C 17.3540039 16.3730011 36.1999969
C 17.6124992 16.1510010 37.6511002
C 15.4759979 2.15002441 40.3576012
C 15.3289948 1.09197998 39.3560028
C 16.4310303 3.35699463 38.6160278
C 16.0209961 3.35800171 39.8955002
C 16.3049927 4.41300201 40.8086014
C 16.8860016 5.62710190 40.2659988
C 17.1789856 5.61399841 38.8095016
C 17.1819992 7.94601440 40.7859955
C 17.5790024 8.11399841 39.4355011
C 17.3020020 10.5450001 41.2234993
C 17.8999939 9.56060028 38.9979858
C 17.6169968 12.0277996 39.2369995
C 17.5780029 10.7195015 39.7710037
C 17.3386002 13.1029968 40.2097015
C 17.2596970 14.4739990 39.6658020
C 16.3910065 18.0520020 40.6060028
C 17.0270996 16.9989929 39.6650009
C 16.8090057 15.5653992 40.3630066
C 14.4863014 0.435501099 43.7879944
C 15.0349731 1.87600720 41.6620026
C 15.5748978 2.97799683 42.6662979
C 14.2519989 0.727996886 42.4265976
C 16.0440063 4.14501953 42.2389984
C 16.2570000 5.23260021 43.2076988
C 16.6766968 7.68600464 43.7569885
C 16.5510025 6.65599823 42.7250061
C 16.7969971 8.94499969 43.2160034
C 17.0412979 9.11099243 41.7869873
C 16.9559937 6.63500214 41.2709961
C 16.5272999 11.5532990 43.5180054
C 17.3396988 11.5024996 42.2905006
C 16.9205017 14.0979996 42.4960022
C 16.6789856 13.9989929 43.9005966
C 17.6640015 13.0240021 41.6119995
C 16.4841995 17.8250122 41.9570999
C 16.8212967 15.3990021 41.8269958
C 16.6541977 16.4710007 42.7422981
C 15.5199890 2.70700073 44.2659912
C 14.4576998 1.13400269 45.8433380
C 15.1862030 1.38800049 44.5225983
C 15.3840027 3.41499329 46.7039948
C 15.4649963 3.82389832 45.2789993
C 15.8802004 5.02200317 44.5799866
C 15.7062988 6.24564981 45.6429977
C 16.1412964 7.53099823 45.0649986
C 16.4153976 8.54399872 45.9952621
C 16.3179932 9.85336018 45.6370010
C 16.0889893 11.1329956 46.2949982
C 16.6320038 9.97900391 44.2051010
C 16.1990051 12.5754013 45.7556000
C 16.3716965 15.0489960 46.1629944
C 16.1247025 13.6409988 46.7159996
C 16.3774986 12.6347008 44.3339996
C 16.9503021 14.9349976 44.7981987
C 16.3065033 17.3619995 44.8193970
C 17.0159988 16.2129974 44.2079926
C 16.6812992 17.2789917 46.3179932
C 12.7190018 0.706001282 49.4441986
C 13.3210144 0.717010498 48.0522995
C 14.5830078 2.12699890 46.8069305
C 13.9040985 1.96000683 47.9440002
C 14.1519012 2.98800659 48.8680115
C 15.4819946 5.93800354 47.0434990
C 14.5920105 4.33789015 48.6040039
C 15.4169998 4.56799316 47.5534096
C 15.2980042 6.82199860 49.2413101
C 15.8840027 8.44900513 47.4769974
C 15.7689972 7.01799774 47.9669952
C 15.9149933 9.37200928 48.4034996
C 15.9629974 10.8650055 47.7886505
C 15.6020050 11.9987001 48.8283997
C 16.3099976 14.2257996 49.2819977
C 16.1105003 13.3509979 48.1389999
C 16.1131001 16.9479980 49.2327995
C 15.7570038 18.1985016 47.0549889
C 15.2839966 18.0019989 48.4976997
C 16.5486984 16.1430054 47.0950012
C 16.5319977 15.5789948 48.6809998
C 11.7490005 1.91339874 51.6335983
C 12.5659027 1.87200165 50.2099991
C 13.6130066 2.79699707 50.0709991
C 11.0220032 0.647003174 51.9609985
C 13.6128006 3.95199585 50.9830017
C 14.7879944 5.57989883 49.5768585
C 14.1080017 5.34899902 50.6750031
C 14.7109985 7.89199829 49.9329987
C 14.0750122 6.49600220 51.4496994
C 14.2584991 7.99045992 51.2580032
C 15.1119995 9.19749832 49.5399933
C 14.4299927 10.3703003 51.8860016
C 14.8709030 11.8046989 49.9448318
C 14.9692001 10.4369965 50.4499969
C 14.9403000 13.0850067 50.8974991
C 15.6796989 14.2251015 50.6335793
C 14.1419983 12.8269958 52.1175003
C 15.4030151 15.3739929 51.3139954
C 14.6479950 17.8355007 51.2457199
C 15.4879990 16.7350006 50.6752586
C 10.2389984 0.538101196 53.0619965
C 10.2776031 1.50700378 54.0709991
C 10.8273010 2.80530167 53.6569977
C 11.9179993 2.80299377 52.7030029
C 10.7431030 3.82299805 54.6091995
C 12.8297997 3.97799683 52.3638000
C 11.4234009 5.03900146 53.9869995
C 12.5206003 5.09500122 53.0953712
C 11.7460022 7.32389832 54.5289993
C 13.4700012 6.19299316 52.7359924
C 12.9154968 7.30801392 53.6650009
C 13.6439972 8.59199524 53.5039978
C 11.2490997 6.14900208 54.9810028
C 14.0789948 9.10781002 52.3024101
C 12.8112030 9.93800354 53.9880066
C 13.1849976 11.4259949 53.6510010
C 14.2375031 11.4509010 52.7010040
C 12.9710083 12.5370026 54.6052017
C 13.3500061 13.7550049 54.2929993
C 13.9929962 14.0355988 53.0049973
C 14.7248001 15.2504005 52.5638008
C 13.7779999 16.0821991 54.8119965
C 14.3419952 17.7303009 52.8450012
C 13.9900055 16.2390976 53.2079926
C 13.3510132 19.4320068 1.80599976
C 13.2149963 19.6968002 0.457401305
C 12.0099945 23.2610016 0.206199706
C 12.2359924 21.6600037 1.95080185
C 12.3331003 22.0147018 0.678600311
C 11.4482002 24.3690033 0.953212976
C 11.4381027 24.0245991 2.32419968
C 11.7007999 22.6190033 2.74200058
C 10.3419952 26.5389996 1.14499664
C 9.50199890 26.7359009 2.68629837
C 11.0469971 25.6042004 0.329399109
C 7.67935991 29.8922005 2.20700073
C 9.33100128 28.8824997 0.710006714
C 8.63700104 28.7019958 1.97699738
C 9.65599823 30.0710144 0.353996307
C 10.2500000 27.6774006 0.276001006
C 7.06700134 32.2908020 2.08799744
C 7.19979858 33.2650146 1.08599854
C 7.87699890 31.0877991 1.69070065
C 8.66788960 31.1419983 0.539336085
C 8.25799561 33.4869003 0.136001602
C 6.96997070 35.8179016 0.835998595
C 6.75749016 34.6419983 1.73099899
C 5.80799866 34.8550987 2.74430084
C 12.6549988 20.5729980 4.28062010
C 12.7030029 20.4493027 2.78800201
C 12.1603003 19.2697983 4.92500305
C 10.7019958 23.6029968 4.63000488
C 11.6909943 21.5333023 5.08169937
C 11.2472992 22.5251999 4.05999756
C 8.03201294 26.8246994 4.99398804
C 9.67199707 25.8599854 3.74700165
C 8.87170029 25.7215996 4.98360062
C 10.5420074 24.5590057 3.42409897
C 7.22200012 29.1189880 4.47200012
C 7.15699768 30.0610046 3.49123001
C 7.91559982 27.8529968 4.17599487
C 8.63400269 27.9160004 3.12003994
C 4.79410172 32.4539948 5.42070007
C 6.26610184 32.4410095 3.20700073
C 6.04219818 31.1309967 3.86399841
C 5.51699829 31.3899994 5.05004978
C 4.91500854 33.7084007 4.42890167
C 3.96299744 35.8238983 3.86199951
C 3.89603996 34.8329010 4.71730042
C 5.04400635 35.9864998 2.86299896
C 5.94299316 33.7488022 3.60100007
C 9.83599854 20.3719940 7.92619991
C 9.20020008 19.1019974 7.63711023
C 11.0760040 20.4149933 7.17924976
C 11.2948999 19.2513008 6.14700317
C 8.44699860 23.9853001 8.08299255
C 9.82299805 23.5883026 5.80900574
C 10.2200012 22.7579956 6.95800018
C 9.24280167 22.7420044 7.92099762
C 11.1419983 21.7790070 6.64059830
C 7.42729950 27.0233002 6.32299805
C 7.33940125 26.0279999 7.21828985
C 8.33900452 24.9300995 7.14800262
C 9.20300293 24.8249969 6.12110138
C 4.78379822 30.2733994 7.19100189
C 4.75900269 29.3020020 8.19365978
C 5.97740173 28.3050003 8.04600525
C 6.55999756 28.2210007 6.75387001
C 6.55609894 29.2322006 5.72500610
C 5.60600281 30.2269993 5.95399857
C 1.89500439 33.5310059 7.66600037
C 2.98699951 33.6060028 6.71800232
C 4.02699280 32.5000000 6.58999634
C 3.97299957 31.3171997 7.45199585
C 1.23000336 35.8370056 7.19999695
C 1.00000000 34.5769958 7.67498779
C 2.26029968 35.7722015 6.15699768
C 2.90199280 34.6226997 5.88660002
C 5.73899841 20.9259949 10.6109009
C 7.23300171 20.0363007 9.21942997
C 6.31110001 19.6149979 10.1216011
C 7.74815989 21.3037033 9.03059959
C 8.15699768 19.0858994 8.66637039
C 4.97700500 23.4049988 10.5100021
C 6.02499390 22.2519989 10.0766983
C 7.11801147 22.4089966 9.30099869
C 7.49400330 23.8529968 9.00199890
C 9.04899597 21.5513000 8.50719833
C 5.23100281 24.6340027 9.97000122
C 4.32699585 27.0549011 9.36399841
C 4.42700195 25.7160034 10.3013000
C 5.61199951 26.9609985 8.48499966
C 6.70099640 25.9442005 8.45400238
C 6.38019943 24.7422028 9.07800293
C 2.53260040 28.0460052 10.9875984
C 1.55900586 30.1275024 10.4008026
C 2.42490005 30.1889954 9.13400269
C 3.39999390 28.0760040 9.90899658
C 3.48100281 29.2861023 9.18798828
C 1.53041005 32.3229980 8.41999817
C 2.73210144 31.5341034 8.43798828
C 0.460998595 31.2830048 10.3676987
C 0.546005309 32.2864990 9.50399780
C 7.89948031E-02 34.8070068 8.81399536
C 4.58909988 21.0520020 11.5480042
C 3.56542993 19.7028999 13.1007004
C 4.64097977 19.7980042 12.1999969
C 2.30888009 24.2270050 12.9849014
C 3.93499756 23.2317009 11.3726006
C 3.28900146 22.1979980 13.6050034
C 3.28020096 24.3489990 11.9709930
C 4.17199707 22.1584015 12.3483963
C 1.24200439 26.4540100 12.2570000
C 1.16260147 25.2880001 12.8925018
C 2.45300293 26.7460022 11.7220001
C 0.157596007 27.3289948 12.2129974
C 3.43790054 25.5745010 11.3435974
C 0.280998200 28.7222996 11.7353001
C 1.51060104 28.9413986 11.1250000
C 1.23770142 19.3370056 15.0924988
C 1.77322996 20.5942001 14.9682999
C 1.49190140 18.3630009 14.1260071
C 2.99800110 20.7590027 13.9932003
C 0.860000610 21.7199707 15.1679993
C 1.00000000 23.2500000 14.7729950
C 2.20999908 23.2772007 13.9670105
C 16.9470215 20.9859924 31.1300049
C 16.6519928 19.5650024 30.9890137
C 16.8561993 18.9530029 32.1710205
C 16.2669983 21.8400269 32.1389771
C 17.1129761 22.6699219 31.1510010
C 16.6310120 24.0369873 31.7160034
C 15.4499512 24.4913025 32.4699707
C 15.0289917 25.7299805 32.4179993
C 15.5979919 20.0919952 34.1150055
C 15.6170044 19.8759003 35.5509949
C 16.3670044 18.9799805 33.4272003
C 15.8760071 21.5169983 33.6710052
C 15.1729736 24.0700073 33.8399658
C 15.4719849 22.7399902 34.3699951
C 13.0999756 26.9620056 35.0119934
C 15.0370026 26.8251038 33.3227005
C 14.2120056 24.7674999 34.9530029
C 14.0239868 26.1099854 34.4990234
C 15.2149963 20.5120239 38.0039978
C 15.3529968 20.9360046 36.4216995
C 16.4060059 18.7579956 36.1309967
C 16.1640015 18.3980026 37.5859985
C 15.3129883 22.3470001 35.7969971
C 14.4649963 23.0079956 36.6690063
C 14.3410034 22.7619934 38.2120056
C 13.9757996 24.3189697 36.3100586
C 12.9239960 26.8380127 36.2990112
C 13.0500488 25.3319702 36.8071976
C 13.1069946 24.9692993 38.3399658
C 12.0260010 27.3189697 37.3120117
C 10.4379883 29.3720093 38.2949982
C 11.3029785 28.5500488 37.4879761
C 15.6132002 19.2709961 38.5639954
C 15.6579971 19.1668015 39.9810028
C 15.3930054 20.3070068 40.6869965
C 14.1130066 23.7779999 40.3099976
C 15.0549927 21.5460205 40.2220001
C 14.8061981 21.5639954 38.8824005
C 13.9099731 23.9143009 38.8900146
C 14.7279968 22.6367035 41.0090027
C 12.5029907 27.1380005 38.6900024
C 12.8239746 26.0209961 39.3240051
C 13.1843996 25.9720001 40.6829987
C 11.3269958 29.6250992 39.3599854
C 12.3040161 28.2719994 39.6950073
C 11.7100000 30.2540283 40.7220001
C 12.4779968 28.2000122 41.1480103
C 11.9704971 31.5000992 41.0469971
C 15.5679932 19.9473038 42.1148987
C 16.1891994 18.7716007 42.9021988
C 15.2440033 20.9869995 42.9970093
C 13.6548004 24.3930054 42.7839966
C 14.7810059 22.3809814 42.6014023
C 14.1230011 23.2469940 43.3158989
C 12.8567009 26.8575993 42.9720001
C 12.8890076 26.9958992 41.5951004
C 13.4509964 25.6493988 43.5090027
C 13.5952988 24.5880127 41.3200073
C 11.7689972 29.3299561 41.6510010
C 12.3373032 29.3599854 43.1020050
C 12.6669922 28.1430054 43.6809998
C 11.7333984 31.8549957 42.4119873
C 11.6970062 31.9381027 43.7858009
C 11.5686035 34.5690002 43.3239746
C 11.5189972 35.8049927 42.8325005
C 11.1019897 36.0390015 41.5669861
C 14.8336000 19.4989929 44.9641991
C 14.6510010 20.8026962 44.3548012
C 14.7969971 19.1119995 46.2887993
C 15.5425987 18.4010010 44.1660004
C 13.5350037 24.0889969 45.4739990
C 14.5570068 21.8665009 45.1774979
C 14.2209930 23.1418991 44.6609955
C 14.0339003 21.6589966 46.5910034
C 13.4979858 25.5189972 45.0540161
C 12.9950027 26.6179962 45.7009888
C 12.8391037 27.8809967 45.0809937
C 12.5721970 29.0939941 45.7647018
C 12.6180115 30.3919983 45.5089722
C 12.2290039 30.5540009 44.1190186
C 11.7539978 33.0335999 44.8880005
C 11.4959717 32.4165993 46.0189972
C 11.9450073 31.1490021 46.5289917
C 11.3789978 35.2260132 45.6594009
C 11.6433029 34.4660034 44.6514015
C 13.8429871 20.1990051 46.9190063
C 14.2444000 20.1722984 48.3109970
C 14.9219971 19.1679001 49.1970062
C 13.4869995 24.2706985 46.8433990
C 13.7279968 21.4107971 49.1428986
C 13.6829987 22.9456024 47.3209991
C 13.2569885 22.6048965 48.7790070
C 12.7042007 26.6245003 47.1110001
C 12.9218979 24.9358978 49.2460022
C 12.9830017 25.4008026 47.7509995
C 12.6069946 29.0930023 47.3165512
C 12.3170013 27.8511963 47.9569702
C 12.0791016 30.5090027 47.7980042
C 12.2449951 30.8240051 49.3039856
C 11.6013031 33.1600342 47.2019958
C 11.0527000 32.5239868 48.4000244
C 10.8051987 34.6079712 49.2969971
C 11.5215988 34.6240234 46.9400024
C 11.2723999 35.3970032 48.1619873
C 13.9729919 20.2680054 51.2530060
C 14.3269958 19.0529938 50.4920044
C 13.4990234 21.4649963 50.6079712
C 12.3827000 23.5231018 51.0797997
C 12.4990005 23.5169983 49.6069946
C 12.9530029 22.3470001 51.7070007
C 12.1239929 25.8690186 51.3000031
C 12.5914993 26.0130005 50.1360016
C 12.1778002 26.8459930 52.2409973
C 12.0637999 24.6548996 51.8489990
C 12.5159988 27.5280151 49.5220032
C 13.1323013 28.4965973 50.3327599
C 12.9700012 29.9250031 50.3780060
C 12.6119995 28.2120056 51.7260132
C 12.4700012 30.4277992 51.7882996
C 11.6225004 32.1643982 49.7263985
C 11.6879883 32.7010040 51.0789948
C 11.9670105 31.5809994 52.2080002
C 10.5199890 34.8245010 50.6759949
C 10.9849854 33.7160034 51.4445000
C 10.3330078 36.0729980 51.1779938
C 13.5029907 18.6125031 54.6976013
C 13.1860046 21.0560303 54.9170074
C 13.4387970 21.2590027 53.7000008
C 13.6026993 20.0230026 52.6710052
C 13.7313004 18.7048035 53.3598099
C 12.1618004 23.2210083 53.8190498
C 12.9263992 22.3970032 53.0311012
C 11.6855001 25.5549927 54.0261917
C 11.2740002 26.8289948 53.4660034
C 11.7739868 24.4605999 53.1944313
C 10.8229980 30.2989960 54.3229980
C 11.2041016 27.9080963 54.3238983
C 12.5020142 29.4025002 52.7429962
C 11.3810120 29.2339935 53.5359955
C 8.81179810 32.3680992 54.8256989
C 10.1838989 32.5610046 53.8692017
C 11.1540070 31.5460052 53.7630005
C 7.98699951 35.8089981 54.9249344
C 10.3041000 33.7026978 52.8460007
C 9.39367008 34.7871017 53.4689941
C 8.51750183 34.6022034 54.4426994
C 9.80200195 35.9936981 52.6362991
C 5.12600708 39.4630127 2.11699677
C 5.19799805 37.3119011 2.18701172
C 4.39999390 38.4639969 2.62363005
C 6.09399414 37.0643997 1.10530090
C 6.73093987 38.4034004 0.636993408
C 6.15459013 39.7009888 1.23901367
C 5.40029907 41.8809814 2.35200500
C 4.47900391 40.7529907 2.43701172
C 5.76901245 41.8959961 0.968017578
C 6.60101318 40.8670044 0.571014404
C 5.53500366 44.2878990 2.58801270
C 6.09429932 44.3228989 1.23100281
C 6.33799744 43.1100006 0.609008789
C 6.60099792 45.4620056 0.621002197
C 5.69000244 46.5659790 2.48699951
C 6.91699219 47.9559937 0.867004395
C 6.72100830 46.7519989 1.38400269
C 5.69599915 49.2149963 2.70899963
C 6.88000488 49.2820129 1.67290115
C 6.98498535 51.5700073 1.98901379
C 7.70100021 50.3020020 1.41699982
C 8.34700012 50.5610046 0.178501099
C 7.57702637 52.6490021 1.62402356
C 7.16497803 53.9250717 2.39001465
C 8.62600708 52.9630127 0.396499604
C 2.37199402 39.4989929 5.42498779
C 3.05300140 39.4210052 4.17898560
C 3.49200439 38.1069946 3.68701172
C 3.13800049 36.7976990 4.21499634
C 2.52799988 41.8269958 5.36199951
C 3.42199707 41.8820038 4.26501465
C 3.75199890 40.8250122 3.68560028
C 4.72499847 43.1140137 2.80130005
C 4.84201050 45.5379944 2.96200562
C 3.63598633 44.3190002 4.49700928
C 4.03599548 43.0960083 3.99298096
C 4.26600647 45.5479965 4.18699646
C 5.25897217 47.8159790 3.18798828
C 3.77502441 46.8959961 4.97900391
C 4.04499817 47.8660278 4.11300659
C 5.28900146 50.5310059 3.08599854
C 3.92098999 49.1909943 4.75000000
C 4.39501953 50.5010071 4.36401367
C 3.64799500 51.6579895 5.00000000
C 6.01098633 51.5440063 2.97998071
C 4.43902588 52.9420013 4.53900146
C 4.46899414 54.0989990 5.44198608
C 5.61199951 52.8753014 3.68099976
C 6.41400146 53.7929993 3.48599243
C 1.08499146 36.9219971 7.86700058
C 2.65899658 37.0054016 5.61499786
C 1.32101440 38.1340027 7.15701294
C 1.87699902 38.2560120 5.76699829
C 0.748992920 39.3470001 7.49899292
C 0.554000914 41.8110046 7.51800537
C 1.92498779 40.6139984 5.89801025
C 1.36399841 40.6970062 7.08599854
C 1.07000732 45.6550293 6.93701172
C 2.69100952 44.2319946 5.72300720
C 1.11999512 43.2800293 7.20300293
C 2.01599121 43.0999756 6.14300537
C 2.14800262 45.5872993 6.16899872
C 0.485000610 44.4580078 7.52799988
C 2.59700012 46.8340149 5.86356020
C 2.72601318 48.0039978 6.58996582
C 1.71950150 47.9010010 7.69500732
C 0.773010314 46.8009949 7.91802979
C 2.00749969 50.3120193 8.21697998
C 3.05603027 49.3013687 6.11700439
C 2.75100708 50.2070007 6.98300171
C 3.32690048 51.4210205 6.52500153
C 3.09698486 52.7099609 7.22639847
C 3.36898804 54.0769958 6.49800110
C 0.409973204 49.2857018 9.68798828
C 1.91497803 51.5780029 8.94000244
C 1.33999646 49.2109985 8.60302734
C 0.753005981 51.6849976 9.80819702
C 2.89993007E-02 50.5500488 10.3400269
C 2.49499512 52.8000488 8.46502686
C 0.763000488 54.0020142 9.79998779
C 1.67999268 54.0859985 8.84301758
C 0.474975586 52.8720093 10.5549927
C 14.4080963 53.9499512 37.4758987
C 15.3757019 54.1909790 36.3729858
C 10.8212004 36.8330078 40.5360107
C 11.3959961 37.8930054 39.8300018
C 12.7770081 38.5469971 40.1640015
C 13.2590027 50.8489990 41.2110977
C 13.5320129 52.7099609 39.4899902
C 13.3300018 52.1870117 40.7230225
C 14.0629883 53.8200073 38.8000488
C 14.4819946 54.9369965 39.8000488
C 11.8010254 38.2239990 42.8365021
C 12.1430054 38.8519897 41.3410034
C 11.3989868 37.0590210 43.7489929
C 11.9770050 39.1250000 43.8000488
C 12.7269974 43.4899902 43.7709961
C 12.8090210 47.8100586 41.8630066
C 12.5269775 46.5190125 42.3889771
C 12.4970093 46.2160034 43.6596985
C 12.6860046 48.9190063 42.9810028
C 13.0729980 50.1959839 42.4430008
C 13.0440063 51.1545486 43.3519897
C 13.5249939 52.4270020 42.9299927
C 13.4859924 53.2218018 41.7339935
C 13.9412994 54.6479950 41.3352013
C 11.3437996 37.5799866 46.3909912
C 11.6669922 39.1130066 46.3299561
C 11.8099976 39.6999512 45.0419922
C 11.1510010 36.7753983 45.1800537
C 12.7149963 42.3900146 44.5289917
C 11.1450195 41.9599609 46.0000000
C 12.0130005 41.3100586 45.1090088
C 10.8040161 43.5500031 46.3080139
C 11.5300293 44.6430054 45.7000122
C 12.2259979 44.6679993 44.2879944
C 11.3250122 45.7770081 46.5982819
C 12.0130005 47.0559998 46.3343010
C 12.5310059 48.5300293 44.2921982
C 12.0720215 47.3729858 44.7380066
C 12.0600586 49.7930298 46.6650009
C 12.3359985 49.7380066 45.3959961
C 12.6300964 50.9689941 44.7890015
C 13.5989990 54.5199890 44.6430054
C 13.4052963 53.1230011 44.3450012
C 12.9113998 52.2700195 45.3079987
C 13.7239990 54.8320007 46.1060028
C 10.5509949 39.2310181 48.7099609
C 11.0759964 37.7749939 49.1188583
C 11.3489990 36.9866028 47.8595581
C 10.1000061 42.2379761 48.1409988
C 10.7560120 41.3210144 47.2170105
C 9.48599243 41.8250122 49.4259949
C 11.3580017 39.9129944 47.6470032
C 9.93798828 44.7947998 48.3699951
C 10.1810303 43.5740051 47.5700684
C 10.6920166 46.1250000 47.9680176
C 10.4989929 47.2650146 48.7680054
C 11.6510010 48.2799988 47.1999969
C 11.0110016 48.3609924 48.5620117
C 10.8252983 49.6930008 49.1029968
C 11.1489868 50.9894485 48.7380066
C 11.6400146 50.9810181 47.2651291
C 10.9639893 52.3489990 49.1739960
C 12.3614006 52.2130127 46.7689972
C 11.5554008 53.5063095 48.5799866
C 12.2213974 53.2909851 47.5639954
C 12.6859970 54.7600098 47.0879974
C 11.4830017 54.8529968 49.4760132
C 10.1309967 38.6990051 51.0170288
C 10.7160034 37.4609985 50.4849854
C 9.94999695 39.7109985 50.0400085
C 9.01900101 38.7523003 52.1300049
C 8.07598877 42.2910156 52.2120056
C 8.73901367 41.0449982 51.5879974
C 9.25000000 40.8930054 50.2919922
C 9.14550018 43.4000015 49.9980011
C 9.69500732 44.6090088 49.7289963
C 8.49700928 43.2869873 51.3039856
C 8.95300293 45.7479858 51.9319992
C 10.1610107 47.0560303 50.2100067
C 9.24700928 45.8420029 50.5059967
C 9.85998535 48.3450012 50.8840027
C 9.16699219 48.2789917 52.1369934
C 10.0606003 50.8550034 51.1950073
C 10.3179932 49.7099915 50.4320068
C 10.2799988 52.0965996 50.4530029
C 10.2659988 53.2400055 51.1770020
C 10.6639004 54.6439972 50.8010025
C 7.56099701 38.3659973 54.4920044
C 7.73199463 39.6926994 53.8110046
C 8.38320160 37.0831985 54.1560059
C 9.36964035 37.4419861 52.9440002
C 7.16299438 40.9645996 54.0850067
C 7.44799805 42.3185997 53.6520004
C 8.72000122 39.9459839 52.7570000
C 8.23793983 44.5430298 52.3604012
C 7.71899414 44.5750122 53.8378983
C 6.98199463 43.4370003 54.3329926
C 7.78601074 45.8289948 54.5230103
C 8.20996094 47.0830078 53.8619995
C 8.13098145 48.1569977 54.9380035
C 8.91900635 46.8940125 52.6629944
C 9.95501709 51.8434410 53.2919922
C 9.91499329 50.6299973 52.5703011
C 8.57915020 49.4989929 54.3496017
C 9.08197021 49.4197998 53.0949707
C 8.90502930 51.9561996 54.5090027
C 9.69900513 54.2075005 53.4071007
C 9.94699097 53.0150146 52.6520004
C 9.06799316 54.1820068 54.8959961
C 54.7500000 2.81597900 10.0809937
C 54.9200211 0.260986298 9.96099854
C 54.9419861 4.05649996 10.5850220
C 54.0858002 5.11401367 10.9110107
C 53.5020142 8.25180054 12.7839966
C 54.5529785 7.82501221 11.6400146
C 54.7480011 6.35099792 11.0579834
C 54.3160095 10.5269928 12.2767029
C 53.2980042 9.46499634 12.1668015
C 54.1560059 12.2575989 12.3873997
C 52.8359985 13.0579987 12.6430054
C 53.3829956 14.4699707 13.3330002
C 54.0120239 17.7099609 14.0000000
C 53.1900024 16.6419983 13.7890015
C 52.5180054 15.4819946 13.9260025
C 53.6389771 33.3370056 10.2430115
C 54.6529999 33.5547028 9.32713032
C 53.3750000 31.9030151 10.8290100
C 53.1160278 35.8309937 9.87799072
C 53.2279968 34.4810028 10.7040100
C 54.1849976 35.8606033 8.94400024
C 53.6601982 26.8430023 12.7060013
C 54.8659973 25.2181015 13.6600037
C 52.9899902 27.8770142 13.3259888
C 53.3209991 29.0100098 12.7839966
C 54.2879944 29.6889954 12.0024986
C 54.3480072 30.9179993 11.1780014
C 53.5289917 20.3939819 14.8401031
C 53.3930054 18.8451996 14.6735001
C 54.8574982 19.2166977 15.4199982
C 54.7500000 24.2099609 14.7559814
C 54.3039856 21.6479950 15.2515030
C 53.8439941 22.9599609 15.1360016
C 53.7099609 26.1199951 13.7750015
C 54.3880005 39.4300537 7.91900635
C 51.8439941 38.8519897 9.23300171
C 50.8285408 36.8750000 9.94630051
C 49.9429932 39.3479919 10.2300110
C 50.5237999 38.1510010 9.51998901
C 52.2064705 36.8540039 10.3580017
C 54.1099854 38.2810059 8.79399872
C 52.7290039 38.1116028 9.44700623
C 54.8289795 36.9609985 8.58996582
C 51.8110046 41.1469727 10.8004990
C 51.7765808 40.3880005 8.81700134
C 50.7529907 40.5930023 10.0480042
C 52.8300018 42.0495987 10.8410034
C 54.3969460 41.9290009 8.67401123
C 53.5800171 40.6040039 8.42943954
C 52.4489975 44.5165024 10.6900024
C 53.7680054 43.1500244 8.97601318
C 54.5189819 44.4569702 8.72699738
C 52.8600006 43.3000031 10.1640015
C 52.9479980 45.8129883 10.1099854
C 54.2999878 45.6520081 9.40499878
C 52.8900146 46.9000244 10.8537998
C 54.6579895 48.0830078 9.78002930
C 54.9299927 46.8300171 9.03129959
C 53.7505989 47.9190063 10.7310181
C 53.9100037 54.9110107 10.8809814
C 53.6830139 51.4399414 12.2219849
C 53.2520142 49.1699829 11.1359863
C 53.8129883 50.4085999 11.2149963
C 54.2650146 53.4479980 11.4349976
C 53.7399902 52.6599731 12.4909973
